Circuit: * D:\SHema\Lab4\repeater.asc

WARNING: Less than two connections to node X1:U1:DP.  This node is used by A:X1:U1:DDEL.
WARNING: Less than two connections to node X1:U3:DP.  This node is used by A:X1:U3:DDEL.
Direct Newton iteration for .op point succeeded.
Ignoring empty pin current: Ix(u1:s)
Ignoring empty pin current: Ix(u1:c)
Ignoring empty pin current: Ix(u1:d)
Ignoring empty pin current: Ix(u1:r)
Ignoring empty pin current: Ix(u1:q)
Ignoring empty pin current: Ix(u1:qn)
Ignoring empty pin current: Ix(u1:vcc)
Ignoring empty pin current: Ix(u3:s)
Ignoring empty pin current: Ix(u3:c)
Ignoring empty pin current: Ix(u3:d)
Ignoring empty pin current: Ix(u3:r)
Ignoring empty pin current: Ix(u3:q)
Ignoring empty pin current: Ix(u3:qn)
Ignoring empty pin current: Ix(u3:vcc)
Ignoring empty pin current: Ix(u3:vgnd)
Ignoring empty pin current: Ix(u11:a)
Ignoring empty pin current: Ix(u11:b)
Ignoring empty pin current: Ix(u11:y)
Ignoring empty pin current: Ix(u11:vcc)
Ignoring empty pin current: Ix(u11:vgnd)
Ignoring empty pin current: Ix(u12:a)
Ignoring empty pin current: Ix(u12:b)
Ignoring empty pin current: Ix(u12:y)
Ignoring empty pin current: Ix(u12:vcc)
Ignoring empty pin current: Ix(u12:vgnd)
Ignoring empty pin current: Ix(u2:a)
Ignoring empty pin current: Ix(u2:b)
Ignoring empty pin current: Ix(u2:c)
Ignoring empty pin current: Ix(u2:y)
Ignoring empty pin current: Ix(u2:vcc)
Ignoring empty pin current: Ix(u4:a)
Ignoring empty pin current: Ix(u4:b)
Ignoring empty pin current: Ix(u4:y)
Ignoring empty pin current: Ix(u4:vcc)
Ignoring empty pin current: Ix(u4:vgnd)
Ignoring empty pin current: Ix(u6:a)
Ignoring empty pin current: Ix(u6:b)
Ignoring empty pin current: Ix(u6:c)
Ignoring empty pin current: Ix(u6:y)
Ignoring empty pin current: Ix(u6:vcc)
Ignoring empty pin current: Ix(u6:vgnd)
Ignoring empty pin current: Ix(u7:a)
Ignoring empty pin current: Ix(u7:b)
Ignoring empty pin current: Ix(u7:y)
Ignoring empty pin current: Ix(u7:vcc)
Ignoring empty pin current: Ix(u7:vgnd)
Ignoring empty pin current: Ix(u8:a)
Ignoring empty pin current: Ix(u8:y)
Ignoring empty pin current: Ix(u8:vcc)
Ignoring empty pin current: Ix(u8:vgnd)
Ignoring empty pin current: Ix(u9:a)
Ignoring empty pin current: Ix(u9:y)
Ignoring empty pin current: Ix(u9:vcc)
Ignoring empty pin current: Ix(u9:vgnd)
Ignoring empty pin current: Ix(x1:a)
Ignoring empty pin current: Ix(x1:b)
Ignoring empty pin current: Ix(x1:clk)
Ignoring empty pin current: Ix(x1:la)
Ignoring empty pin current: Ix(x1:lb)
Ignoring empty pin current: Ix(x1:clr)
Ignoring empty pin current: Ix(x1:vdd)
Ignoring empty pin current: Ix(u1:s)
Ignoring empty pin current: Ix(u1:c)
Ignoring empty pin current: Ix(u1:d)
Ignoring empty pin current: Ix(u1:r)
Ignoring empty pin current: Ix(u1:q)
Ignoring empty pin current: Ix(u1:qn)
Ignoring empty pin current: Ix(u1:vcc)
Ignoring empty pin current: Ix(u3:s)
Ignoring empty pin current: Ix(u3:c)
Ignoring empty pin current: Ix(u3:d)
Ignoring empty pin current: Ix(u3:r)
Ignoring empty pin current: Ix(u3:q)
Ignoring empty pin current: Ix(u3:qn)
Ignoring empty pin current: Ix(u3:vcc)
Ignoring empty pin current: Ix(u3:vgnd)
Ignoring empty pin current: Ix(u11:a)
Ignoring empty pin current: Ix(u11:b)
Ignoring empty pin current: Ix(u11:y)
Ignoring empty pin current: Ix(u11:vcc)
Ignoring empty pin current: Ix(u11:vgnd)
Ignoring empty pin current: Ix(u12:a)
Ignoring empty pin current: Ix(u12:b)
Ignoring empty pin current: Ix(u12:y)
Ignoring empty pin current: Ix(u12:vcc)
Ignoring empty pin current: Ix(u12:vgnd)
Ignoring empty pin current: Ix(u2:a)
Ignoring empty pin current: Ix(u2:b)
Ignoring empty pin current: Ix(u2:c)
Ignoring empty pin current: Ix(u2:y)
Ignoring empty pin current: Ix(u2:vcc)
Ignoring empty pin current: Ix(u4:a)
Ignoring empty pin current: Ix(u4:b)
Ignoring empty pin current: Ix(u4:y)
Ignoring empty pin current: Ix(u4:vcc)
Ignoring empty pin current: Ix(u4:vgnd)
Ignoring empty pin current: Ix(u6:a)
Ignoring empty pin current: Ix(u6:b)
Ignoring empty pin current: Ix(u6:c)
Ignoring empty pin current: Ix(u6:y)
Ignoring empty pin current: Ix(u6:vcc)
Ignoring empty pin current: Ix(u6:vgnd)
Ignoring empty pin current: Ix(u7:a)
Ignoring empty pin current: Ix(u7:b)
Ignoring empty pin current: Ix(u7:y)
Ignoring empty pin current: Ix(u7:vcc)
Ignoring empty pin current: Ix(u7:vgnd)
Ignoring empty pin current: Ix(u8:a)
Ignoring empty pin current: Ix(u8:y)
Ignoring empty pin current: Ix(u8:vcc)
Ignoring empty pin current: Ix(u8:vgnd)
Ignoring empty pin current: Ix(u9:a)
Ignoring empty pin current: Ix(u9:y)
Ignoring empty pin current: Ix(u9:vcc)
Ignoring empty pin current: Ix(u9:vgnd)
Ignoring empty pin current: Ix(x1:a)
Ignoring empty pin current: Ix(x1:b)
Ignoring empty pin current: Ix(x1:clk)
Ignoring empty pin current: Ix(x1:la)
Ignoring empty pin current: Ix(x1:lb)
Ignoring empty pin current: Ix(x1:clr)
Ignoring empty pin current: Ix(x1:vdd)

Date: Tue Jun 07 09:35:54 2016
Total elapsed time: 2.078 seconds.

tnom = 27
temp = 27
method = modified trap
totiter = 75015
traniter = 75005
tranpoints = 36534
accept = 35002
rejected = 1532
matrix size = 200
fillins = 6
solver = Normal
Thread vector: 14.3/10.4[4] 5.0/4.7[1] 3.3/2.9[2] 0.3/2.5[1]  2592/500
Matrix Compiler1: 5.27 KB object code size  2.5/1.1/[0.7]
Matrix Compiler2: 10.38 KB object code size  1.5/2.0/[0.6]


