Circuit: * D:\SHema\Lab2\Final.asc

WARNING: Less than two connections to node N010.  This node is used by A:X5:3.
WARNING: Less than two connections to node N011.  This node is used by A:X5:13.
WARNING: Less than two connections to node N013.  This node is used by A:X5:14.
WARNING: Less than two connections to node N015.  This node is used by A:X5:15.
Direct Newton iteration for .op point succeeded.
Ignoring empty pin current: Ix(x1:b0)
Ignoring empty pin current: Ix(x1:b1)
Ignoring empty pin current: Ix(x1:b2)
Ignoring empty pin current: Ix(x1:b3)
Ignoring empty pin current: Ix(x2:b0)
Ignoring empty pin current: Ix(x2:b1)
Ignoring empty pin current: Ix(x2:b2)
Ignoring empty pin current: Ix(x2:b3)
Ignoring empty pin current: Ix(x5:a0)
Ignoring empty pin current: Ix(x5:a1)
Ignoring empty pin current: Ix(x5:a2)
Ignoring empty pin current: Ix(x5:a3)
Ignoring empty pin current: Ix(x5:b0)
Ignoring empty pin current: Ix(x5:b1)
Ignoring empty pin current: Ix(x5:b2)
Ignoring empty pin current: Ix(x5:b3)
Ignoring empty pin current: Ix(x1:b0)
Ignoring empty pin current: Ix(x1:b1)
Ignoring empty pin current: Ix(x1:b2)
Ignoring empty pin current: Ix(x1:b3)
Ignoring empty pin current: Ix(x2:b0)
Ignoring empty pin current: Ix(x2:b1)
Ignoring empty pin current: Ix(x2:b2)
Ignoring empty pin current: Ix(x2:b3)
Ignoring empty pin current: Ix(x5:a0)
Ignoring empty pin current: Ix(x5:a1)
Ignoring empty pin current: Ix(x5:a2)
Ignoring empty pin current: Ix(x5:a3)
Ignoring empty pin current: Ix(x5:b0)
Ignoring empty pin current: Ix(x5:b1)
Ignoring empty pin current: Ix(x5:b2)
Ignoring empty pin current: Ix(x5:b3)

Date: Fri Apr 08 15:36:45 2016
Total elapsed time: 2.272 seconds.

tnom = 27
temp = 27
method = modified trap
totiter = 64807
traniter = 64794
tranpoints = 32342
accept = 32305
rejected = 37
matrix size = 117
fillins = 0
solver = Normal
Thread vector: 6.1/3.9[4] 1.9/1.5[4] 1.3/1.2[1] 0.2/0.6[1]  2592/500
Matrix Compiler1: 1.70 KB object code size  0.6/0.4/[0.3]
Matrix Compiler2: 4.54 KB object code size  0.7/1.0/[0.5]


