Circuit: * D:\SHema\Lab2\Major.asc

Warning: Multiple definitions of model "x15:pmos" Type: BSIM4
Warning: Multiple definitions of model "x15:nmos" Type: BSIM4
Warning: Multiple definitions of model "x14:pmos" Type: BSIM4
Warning: Multiple definitions of model "x14:nmos" Type: BSIM4
WARNING: Node X10:NC_01 is floating.
WARNING: Node X11:NC_01 is floating.
WARNING: Node X13:NC_01 is floating.

WARNING: Less than two connections to node X10:NC_01.  This node is used by M:X10:2.
WARNING: Less than two connections to node X11:NC_01.  This node is used by M:X11:2.
WARNING: Less than two connections to node X13:NC_01.  This node is used by M:X13:2.
Warning: toxe, toxp and dtox all given and toxe != toxp + dtox; dtox ignored.
Warning: toxe, toxp and dtox all given and toxe != toxp + dtox; dtox ignored.
Warning: toxe, toxp and dtox all given and toxe != toxp + dtox; dtox ignored.
Warning: toxe, toxp and dtox all given and toxe != toxp + dtox; dtox ignored.
Warning: toxe, toxp and dtox all given and toxe != toxp + dtox; dtox ignored.
Warning: toxe, toxp and dtox all given and toxe != toxp + dtox; dtox ignored.
Warning: toxe, toxp and dtox all given and toxe != toxp + dtox; dtox ignored.
Warning: toxe, toxp and dtox all given and toxe != toxp + dtox; dtox ignored.
Warning: toxe, toxp and dtox all given and toxe != toxp + dtox; dtox ignored.
Warning: toxe, toxp and dtox all given and toxe != toxp + dtox; dtox ignored.
Warning: toxe, toxp and dtox all given and toxe != toxp + dtox; dtox ignored.
Warning: toxe, toxp and dtox all given and toxe != toxp + dtox; dtox ignored.
Warning: toxe, toxp and dtox all given and toxe != toxp + dtox; dtox ignored.
Warning: toxe, toxp and dtox all given and toxe != toxp + dtox; dtox ignored.
Warning: toxe, toxp and dtox all given and toxe != toxp + dtox; dtox ignored.
Warning: toxe, toxp and dtox all given and toxe != toxp + dtox; dtox ignored.
Warning: toxe, toxp and dtox all given and toxe != toxp + dtox; dtox ignored.
Warning: toxe, toxp and dtox all given and toxe != toxp + dtox; dtox ignored.
Warning: toxe, toxp and dtox all given and toxe != toxp + dtox; dtox ignored.
Warning: toxe, toxp and dtox all given and toxe != toxp + dtox; dtox ignored.
Warning: toxe, toxp and dtox all given and toxe != toxp + dtox; dtox ignored.
Warning: toxe, toxp and dtox all given and toxe != toxp + dtox; dtox ignored.
Warning: toxe, toxp and dtox all given and toxe != toxp + dtox; dtox ignored.
Warning: toxe, toxp and dtox all given and toxe != toxp + dtox; dtox ignored.
Direct Newton iteration failed to find .op point.  (Use ".option noopiter" to skip.)
Starting Gmin stepping
Gmin = 10
Gmin = 1.07374
Gmin = 0.115292
Gmin = 0.0123794
Gmin = 0.00132923
Gmin = 0.000142725
Gmin = 1.5325e-005
Gmin = 1.6455e-006
Gmin = 1.76685e-007
Gmin = 1.89714e-008
Gmin = 2.03704e-009
Gmin = 2.18725e-010
Gmin = 2.34854e-011
Gmin = 2.52173e-012
Gmin = 2.70769e-013
Gmin = 0
Gmin stepping succeeded in finding the operating point.

Heightened Def Con from 2.5e-008 to 2.5e-008
Heightened Def Con from 2.5e-008 to 2.5e-008
Heightened Def Con from 3.101e-008 +to 3.101e-008
Heightened Def Con from 3.3e-008 ++to 3.3e-008
Heightened Def Con from 3.3e-008 to 3.30002e-008
Heightened Def Con from 3.501e-008 to 3.5012e-008
Heightened Def Con from 4.701e-008 to 4.701e-008
Heightened Def Con from 4.701e-008 to 4.701e-008
Heightened Def Con from 4.701e-008 to 4.70102e-008
Heightened Def Con from 5.7e-008 to 5.7e-008
Heightened Def Con from 6.301e-008 to 6.301e-008
Heightened Def Con from 6.301e-008 to 6.30102e-008

Date: Fri Apr 08 15:51:04 2016
Total elapsed time: 23.715 seconds.

tnom = 27
temp = 27
method = modified trap
totiter = 132549
traniter = 132108
tranpoints = 64837
accept = 64733
rejected = 119
matrix size = 366
fillins = 20
solver = Normal
Thread vector: 221.7/98.1[4] 38.5/14.5[4] 16.0/7.4[4] 2.4/2.6[1]  2592/500
Matrix Compiler1: 51.85 KB object code size  16.8/8.1/[4.4]
Matrix Compiler2: 45.55 KB object code size  9.5/9.7/[3.1]


