Circuit: * D:\SHema\Lab3\Draft3.asc

Warning: toxe, toxp and dtox all given and toxe != toxp + dtox; dtox ignored.
Warning: toxe, toxp and dtox all given and toxe != toxp + dtox; dtox ignored.
Direct Newton iteration failed to find .op point.  (Use ".option noopiter" to skip.)
Starting Gmin stepping
Gmin = 10
Gmin = 1.07374
Gmin = 0.115292
Gmin = 0.0123794
Gmin = 0.00132923
Gmin = 0.000142725
Gmin = 1.5325e-005
Gmin = 1.6455e-006
Gmin = 1.76685e-007
Gmin = 1.89714e-008
Gmin = 2.03704e-009
Gmin = 2.18725e-010
Gmin = 2.34854e-011
Gmin = 2.52173e-012
Gmin = 2.70769e-013
Gmin = 0
Gmin stepping succeeded in finding the operating point.

Heightened Def Con from 1.7e-008 +++++++++++++++++++++++++++++++++to 1.7e-008
Heightened Def Con from 1.8e-008 to 1.8e-008
Heightened Def Con from 1.8e-008 to 1.80002e-008
Heightened Def Con from 2.1e-008 ++++++++++++++++++++++++++++++++++to 2.1e-008
Heightened Def Con from 2.2e-008 ++++++++++++++++++++++++++++++++++to 2.2e-008
Heightened Def Con from 2.301e-008 +++++++++++++++++++++++++++++++++++to 2.301e-008
Heightened Def Con from 2.5e-008 +++++++++++++++++++++++++++++++++++to 2.5e-008
Heightened Def Con from 2.6e-008 ++++++++++++++++to 2.6e-008
Heightened Def Con from 2.6e-008 to 2.60002e-008
Heightened Def Con from 2.9e-008 ++++++++++++++++++++++++++++++++++to 2.9e-008
Heightened Def Con from 3e-008 ++++++++to 3e-008
Heightened Def Con from 3e-008 to 3.00002e-008
Heightened Def Con from 3.3e-008 +++++++++++++++++++++++++++++++++++to 3.3e-008
Heightened Def Con from 3.4e-008 +++++to 3.4e-008
Heightened Def Con from 3.4e-008 to 3.40002e-008
Heightened Def Con from 3.7e-008 +++++++++++++++++++++++++++++++++to 3.7e-008
Heightened Def Con from 3.7e-008 to 3.7002e-008
Heightened Def Con from 3.8e-008 ++++++++++++++++++++++++++++++++++to 3.8e-008
Heightened Def Con from 3.901e-008 +++++++++++++++++++++++++++++++++++to 3.901e-008
Heightened Def Con from 4.1e-008 ++++++++++++++++++++++++++++++++++to 4.1e-008
Heightened Def Con from 4.2e-008 +++++++++++++++++++++++++++++++++to 4.2e-008
Heightened Def Con from 4.2e-008 to 4.2002e-008
Heightened Def Con from 4.5e-008 ++++++++++++++++++++++++++++++++++to 4.5e-008
Heightened Def Con from 4.6e-008 +++++++++++++++++++++++++++++++++to 4.6e-008
Heightened Def Con from 4.701e-008 ++++++++++++++++++++++++++++++++++to 4.701e-008
Heightened Def Con from 4.9e-008 ++++++++++++++++++++++++++++++++++to 4.9e-008
Heightened Def Con from 5e-008 +++++++++++++++to 5e-008
Heightened Def Con from 5e-008 to 5.00002e-008
Heightened Def Con from 5.3e-008 ++++++++++++++++++++++++++++++++++to 5.3e-008
Heightened Def Con from 5.4e-008 +++++++++++++++++++++++++++++++++++to 5.4e-008
Heightened Def Con from 5.501e-008 ++++++++++++++++++++++++++++++++to 5.501e-008
Heightened Def Con from 5.501e-008 to 5.50102e-008
Heightened Def Con from 5.7e-008 +++++++++++++++++++++++++++++++++++to 5.7e-008
Heightened Def Con from 5.8e-008 ++++++++++++++++++++++++++++++++++to 5.8e-008
Heightened Def Con from 5.901e-008 to 5.901e-008
Heightened Def Con from 6.1e-008 +++++++++++++++++++++++++++++++++to 6.1e-008
Heightened Def Con from 6.2e-008 +++++++++++++++++++++++++++++++++to 6.2e-008
Heightened Def Con from 6.301e-008 ++++++++++++++++++++++++++++++++++to 6.301e-008

Date: Fri May 20 16:09:14 2016
Total elapsed time: 13.064 seconds.

tnom = 27
temp = 27
method = modified trap
totiter = 153695
traniter = 153286
tranpoints = 66937
accept = 65907
rejected = 1926
matrix size = 165
fillins = 14
solver = Normal
Thread vector: 97.2/50.0[3] 14.8/12.0[3] 6.8/3.8[3] 1.0/1.0[2]  2592/500
Matrix Compiler1: 25.20 KB object code size  7.6/2.4/[1.5]
Matrix Compiler2: 20.79 KB object code size  3.7/4.5/[1.3]


